Program Version,EnergyPlus, Version 25.1.0-68a4a7c774, YMD=2025.12.04 13:06,
   ************* Beginning Zone Sizing Calculations
   ** Warning ** Weather file location will be used rather than entered (IDF) Location object.
   **   ~~~   ** ..Location object=FORTALEZA_CE_BRA
   **   ~~~   ** ..Weather File Location=FORTALEZA/PINTO_MAR - BRA SWERA WMO#=823980
   **   ~~~   ** ..due to location differences, Latitude difference=[6.00E-002] degrees, Longitude difference=[1.00E-002] degrees.
   **   ~~~   ** ..Time Zone difference=[0.0] hour(s), Elevation difference=[19.05] percent, [4.00] meters.
   ** Warning ** GetHTSurfaceData: Surfaces with interface to Ground found but no "Ground Temperatures" were input.
   **   ~~~   ** Found first in surface=FLOOR_LAB
   **   ~~~   ** Defaults, constant throughout the year of (18.0) will be used.
   ** Severe  ** checkSubSurfAzTiltNorm: Outward facing angle of subsurface differs more than 90.0 degrees from base surface.
   **   ~~~   ** Subsurface="WINDOW_1" Tilt = 90.0  Azimuth = 180.0
   **   ~~~   ** Base surface="WALL_BACK_WINDOWS" Tilt = 90.0  Azimuth = 0.0
   ** Severe  ** checkSubSurfAzTiltNorm: Outward facing angle of subsurface differs more than 90.0 degrees from base surface.
   **   ~~~   ** Subsurface="WINDOW_2" Tilt = 90.0  Azimuth = 180.0
   **   ~~~   ** Base surface="WALL_BACK_WINDOWS" Tilt = 90.0  Azimuth = 0.0
   **  Fatal  ** GetSurfaceData: Errors discovered, program terminates.
   ...Summary of Errors that led to program termination:
   ..... Reference severe error count=2
   ..... Last severe error=checkSubSurfAzTiltNorm: Outward facing angle of subsurface differs more than 90.0 degrees from base surface.
   ************* Warning:  Node connection errors not checked - most system input has not been read (see previous warning).
   ************* Fatal error -- final processing.  Program exited before simulations began.  See previous error messages.
   ************* EnergyPlus Warmup Error Summary. During Warmup: 0 Warning; 0 Severe Errors.
   ************* EnergyPlus Sizing Error Summary. During Sizing: 2 Warning; 2 Severe Errors.
   ************* EnergyPlus Terminated--Fatal Error Detected. 2 Warning; 2 Severe Errors; Elapsed Time=00hr 00min  0.07sec
