Program Version,EnergyPlus, Version 25.1.0-68a4a7c774, YMD=2025.12.04 13:01,
   ** Severe  ** <root>[Coil:Cooling:DX][AC1_Cooling_Coil] - Missing required property 'condenser_outlet_node_name'.
   ** Severe  ** <root>[Coil:Cooling:DX][AC1_Cooling_Coil] - Missing required property 'performance_object_name'.
   ** Severe  ** <root>[Coil:Cooling:DX:CurveFit:Performance][AC1_CoolingCoilPerf][evaporative_condenser_basin_heater_setpoint_temperature] - Value type "string" for input "Electricity" not permitted by 'type' constraint.
   ** Severe  ** <root>[Coil:Cooling:DX:CurveFit:Performance][AC1_CoolingCoilPerf][maximum_outdoor_dry_bulb_temperature_for_crankcase_heater_operation] - Value type "string" for input "Discrete" not permitted by 'type' constraint.
   ** Severe  ** <root>[Coil:Cooling:DX:CurveFit:Speed][AC1_Speed][evaporative_condenser_effectiveness] - Value type "string" for input "WindACCoolCapFT" not permitted by 'type' constraint.
   ** Severe  ** <root>[Coil:Cooling:DX:CurveFit:Speed][AC1_Speed][evaporative_condenser_pump_power_fraction] - "0.000000" - Expected number greater than 0.000000
   ** Severe  ** <root>[ZoneHVAC:PackagedTerminalAirConditioner][AC_Unit_1][cooling_coil_object_type] - "AC1_Cooling_Coil" - Failed to match against any enum values.
   ** Severe  ** <root>[ZoneHVAC:PackagedTerminalAirConditioner][AC_Unit_1][fan_placement] - "FanOpModeSchedule" - Failed to match against any enum values.
   ** Severe  ** <root>[ZoneHVAC:PackagedTerminalAirConditioner][AC_Unit_1][heating_coil_object_type] - "AC1_Heating_Coil" - Failed to match against any enum values.
   ** Severe  ** <root>[ZoneHVAC:PackagedTerminalAirConditioner][AC_Unit_1][no_load_outdoor_air_flow_rate] - Value type "string" for input "Fan:OnOff" not permitted by 'type' constraint.
   ** Severe  ** <root>[ZoneHVAC:PackagedTerminalAirConditioner][AC_Unit_1][no_load_outdoor_air_flow_rate] - Failed to validate against child schema #0.
   ** Severe  ** <root>[ZoneHVAC:PackagedTerminalAirConditioner][AC_Unit_1][no_load_outdoor_air_flow_rate] - "Fan:OnOff" - Failed to match against any enum values.
   ** Severe  ** <root>[ZoneHVAC:PackagedTerminalAirConditioner][AC_Unit_1][no_load_outdoor_air_flow_rate] - Failed to validate against child schema #1.
   ** Severe  ** <root>[ZoneHVAC:PackagedTerminalAirConditioner][AC_Unit_1][no_load_outdoor_air_flow_rate] - Failed to validate against any schemas allowed by anyOf constraint.
   ** Severe  ** <root>[ZoneHVAC:PackagedTerminalAirConditioner][AC_Unit_1][no_load_supply_air_flow_rate_control_set_to_low_speed] - "autosize" - Failed to match against any enum values.
   ** Severe  ** <root>[ZoneHVAC:PackagedTerminalAirConditioner][AC_Unit_1][supply_air_fan_object_type] - "AC1_Fan" - Failed to match against any enum values.
   **  Fatal  ** Errors occurred on processing input file. Preceding condition(s) cause termination.
   ...Summary of Errors that led to program termination:
   ..... Reference severe error count=16
   ..... Last severe error=<root>[ZoneHVAC:PackagedTerminalAirConditioner][AC_Unit_1][supply_air_fan_object_type] - "AC1_Fan" - Failed to match against any enum values.
   ************* Warning:  Node connection errors not checked - most system input has not been read (see previous warning).
   ************* Fatal error -- final processing.  Program exited before simulations began.  See previous error messages.
   ************* EnergyPlus Warmup Error Summary. During Warmup: 0 Warning; 0 Severe Errors.
   ************* EnergyPlus Sizing Error Summary. During Sizing: 0 Warning; 0 Severe Errors.
   ************* EnergyPlus Terminated--Fatal Error Detected. 0 Warning; 16 Severe Errors; Elapsed Time=00hr 00min  0.04sec
